  
       XFOIL         Version 6.97
  
 Calculated polar for: AH 88-K-130/20                                  
  
 1 1 Reynolds number fixed          Mach number fixed         
  
 xtrf =   1.000 (top)        1.000 (bottom)  
 Mach =   0.000     Re =     5.800 e 6     Ncrit =   9.000
  
   alpha    CL        CD       CDp       CM     Top_Xtr  Bot_Xtr
  ------ -------- --------- --------- -------- -------- --------
  -2.900   0.2452   0.00528   0.00093  -0.1269   0.7453   0.0062
  -2.800   0.2568   0.00525   0.00090  -0.1272   0.7449   0.0052
  -2.700   0.2685   0.00522   0.00089  -0.1274   0.7445   0.0047
  -2.600   0.2801   0.00512   0.00086  -0.1276   0.7441   0.0162
  -2.500   0.2917   0.00510   0.00084  -0.1278   0.7436   0.0166
  -2.400   0.3034   0.00507   0.00081  -0.1280   0.7429   0.0168
  -2.300   0.3151   0.00504   0.00079  -0.1282   0.7413   0.0170
  -2.200   0.3266   0.00501   0.00076  -0.1284   0.7388   0.0170
  -2.100   0.3380   0.00500   0.00072  -0.1286   0.7350   0.0172
  -2.000   0.3501   0.00498   0.00072  -0.1289   0.7403   0.0160
  -1.900   0.3617   0.00496   0.00070  -0.1291   0.7393   0.0164
  -1.800   0.3733   0.00494   0.00068  -0.1293   0.7381   0.0168
  -1.700   0.3849   0.00492   0.00066  -0.1295   0.7368   0.0170
  -1.600   0.3964   0.00490   0.00065  -0.1297   0.7353   0.0181
  -1.500   0.4078   0.00488   0.00063  -0.1298   0.7331   0.0198
  -1.400   0.4192   0.00487   0.00061  -0.1300   0.7303   0.0215
  -1.300   0.4304   0.00485   0.00059  -0.1301   0.7265   0.0232
  -1.200   0.4417   0.00484   0.00058  -0.1302   0.7225   0.0247
  -1.100   0.4533   0.00482   0.00057  -0.1304   0.7208   0.0261
  -1.000   0.4650   0.00480   0.00055  -0.1307   0.7203   0.0308
  -0.900   0.4767   0.00476   0.00054  -0.1309   0.7192   0.0374
  -0.800   0.4882   0.00472   0.00052  -0.1311   0.7159   0.0491
  -0.700   0.4989   0.00474   0.00050  -0.1311   0.7058   0.0503
  -0.600   0.5091   0.00479   0.00050  -0.1310   0.6915   0.0510
  -0.500   0.5205   0.00478   0.00049  -0.1311   0.6890   0.0516
  -0.400   0.5318   0.00479   0.00049  -0.1313   0.6845   0.0548
  -0.300   0.5423   0.00482   0.00050  -0.1313   0.6759   0.0609
  -0.200   0.5526   0.00486   0.00052  -0.1312   0.6631   0.0654
  -0.100   0.5638   0.00484   0.00052  -0.1313   0.6575   0.0844
   0.000   0.5747   0.00478   0.00053  -0.1315   0.6507   0.1259
   0.200   0.5963   0.00455   0.00056  -0.1319   0.6291   0.2768
   0.300   0.6079   0.00442   0.00057  -0.1322   0.6244   0.3416
   0.400   0.6178   0.00446   0.00062  -0.1322   0.6090   0.3744
   0.500   0.6281   0.00446   0.00065  -0.1322   0.5903   0.4200
   0.600   0.6374   0.00454   0.00072  -0.1321   0.5684   0.4511
   0.800   0.6580   0.00457   0.00081  -0.1322   0.5320   0.5392
   0.900   0.6676   0.00466   0.00088  -0.1321   0.5125   0.5693
   1.100   0.6842   0.00500   0.00110  -0.1315   0.4410   0.6471
   1.200   0.6945   0.00505   0.00117  -0.1316   0.4201   0.6905
   1.300   0.7045   0.00514   0.00125  -0.1315   0.3990   0.7180
   1.400   0.7135   0.00531   0.00138  -0.1313   0.3722   0.7464
   1.500   0.7234   0.00542   0.00147  -0.1312   0.3558   0.7660
   1.700   0.7415   0.00578   0.00166  -0.1307   0.3113   0.7750
   1.800   0.7511   0.00592   0.00173  -0.1305   0.2947   0.7763
   1.900   0.7607   0.00606   0.00179  -0.1304   0.2767   0.7772
   2.000   0.7696   0.00625   0.00190  -0.1301   0.2569   0.7777
   2.100   0.7795   0.00638   0.00196  -0.1300   0.2409   0.7804
   2.200   0.7889   0.00653   0.00204  -0.1298   0.2219   0.7840
   2.300   0.7988   0.00665   0.00212  -0.1297   0.2107   0.7870
   2.400   0.8062   0.00694   0.00228  -0.1291   0.1749   0.7891
   2.500   0.8122   0.00732   0.00247  -0.1283   0.1257   0.7913
   2.600   0.8195   0.00761   0.00262  -0.1277   0.0921   0.7932
   2.700   0.8275   0.00786   0.00276  -0.1273   0.0616   0.7947
   2.800   0.8373   0.00798   0.00284  -0.1271   0.0498   0.7959
   2.900   0.8464   0.00815   0.00294  -0.1269   0.0356   0.7969
   3.000   0.8567   0.00823   0.00300  -0.1268   0.0327   0.7977
   3.100   0.8673   0.00829   0.00305  -0.1268   0.0307   0.7983
   3.200   0.8780   0.00835   0.00309  -0.1269   0.0294   0.7988
   3.300   0.8886   0.00840   0.00314  -0.1269   0.0283   0.7993
   3.400   0.8993   0.00846   0.00319  -0.1269   0.0275   0.7997
   3.500   0.9099   0.00851   0.00324  -0.1270   0.0267   0.8000
   3.600   0.9205   0.00857   0.00328  -0.1270   0.0265   0.8003
   3.700   0.9311   0.00863   0.00333  -0.1270   0.0264   0.8006
   3.800   0.9417   0.00868   0.00338  -0.1270   0.0263   0.8010
   3.900   0.9522   0.00874   0.00344  -0.1271   0.0262   0.8015
   4.000   0.9626   0.00881   0.00349  -0.1270   0.0261   0.8022
   4.100   0.9730   0.00887   0.00355  -0.1270   0.0260   0.8028
   4.200   0.9833   0.00894   0.00362  -0.1270   0.0258   0.8033
   4.300   0.9939   0.00899   0.00368  -0.1270   0.0264   0.8034
   4.400   1.0044   0.00905   0.00374  -0.1270   0.0264   0.8035
   4.500   1.0148   0.00911   0.00379  -0.1270   0.0264   0.8036
   4.600   1.0251   0.00917   0.00385  -0.1270   0.0263   0.8037
   4.700   1.0354   0.00924   0.00391  -0.1270   0.0262   0.8037
   4.800   1.0457   0.00930   0.00397  -0.1269   0.0261   0.8038
   4.900   1.0560   0.00936   0.00403  -0.1269   0.0260   0.8039
   5.000   1.0662   0.00943   0.00410  -0.1269   0.0258   0.8039
   5.100   1.0763   0.00950   0.00416  -0.1268   0.0256   0.8040
   5.200   1.0864   0.00957   0.00423  -0.1268   0.0252   0.8040
   5.300   1.0964   0.00964   0.00430  -0.1267   0.0246   0.8041
   5.400   1.1062   0.00973   0.00438  -0.1266   0.0233   0.8041
   5.500   1.1141   0.00992   0.00452  -0.1261   0.0157   0.8042
   5.600   1.1231   0.01004   0.00463  -0.1259   0.0137   0.8042
   5.700   1.1325   0.01015   0.00471  -0.1257   0.0117   0.8043
   5.800   1.1421   0.01023   0.00480  -0.1255   0.0098   0.8043
   5.900   1.1517   0.01032   0.00488  -0.1254   0.0094   0.8044
   6.000   1.1610   0.01042   0.00497  -0.1252   0.0088   0.8044
   6.100   1.1702   0.01052   0.00507  -0.1249   0.0079   0.8049
   6.200   1.1790   0.01064   0.00519  -0.1247   0.0067   0.8054
   6.300   1.1879   0.01076   0.00530  -0.1244   0.0054   0.8061
   6.400   1.1970   0.01086   0.00539  -0.1242   0.0044   0.8068
   6.500   1.2061   0.01095   0.00548  -0.1239   0.0043   0.8077
   6.600   1.2146   0.01104   0.00557  -0.1236   0.0042   0.8085
   6.700   1.2226   0.01113   0.00566  -0.1231   0.0041   0.8094
   6.800   1.2307   0.01123   0.00576  -0.1227   0.0039   0.8102
   6.900   1.2389   0.01133   0.00586  -0.1222   0.0038   0.8110
   7.000   1.2469   0.01144   0.00597  -0.1218   0.0036   0.8117
   7.100   1.2549   0.01155   0.00608  -0.1214   0.0035   0.8124
   7.200   1.2629   0.01167   0.00620  -0.1209   0.0033   0.8131
   7.300   1.2707   0.01179   0.00631  -0.1204   0.0031   0.8137
   7.400   1.2784   0.01191   0.00644  -0.1200   0.0029   0.8144
   7.500   1.2860   0.01204   0.00657  -0.1195   0.0028   0.8151
   7.600   1.2935   0.01218   0.00670  -0.1190   0.0026   0.8158
   7.700   1.3009   0.01231   0.00684  -0.1185   0.0024   0.8165
   7.800   1.3083   0.01245   0.00698  -0.1180   0.0023   0.8171
   7.900   1.3158   0.01260   0.00712  -0.1175   0.0021   0.8178
   8.000   1.3232   0.01274   0.00727  -0.1170   0.0019   0.8184
   8.100   1.3307   0.01289   0.00742  -0.1165   0.0017   0.8191
   8.200   1.3381   0.01304   0.00758  -0.1160   0.0014   0.8197
   8.400   1.3528   0.01334   0.00790  -0.1151   0.0014   0.8209
   8.700   1.3738   0.01388   0.00847  -0.1135   0.0011   0.8227
   8.800   1.3808   0.01407   0.00867  -0.1130   0.0011   0.8231
   8.900   1.3878   0.01426   0.00887  -0.1125   0.0011   0.8236
   9.000   1.3947   0.01446   0.00908  -0.1120   0.0011   0.8240
   9.100   1.4014   0.01467   0.00930  -0.1115   0.0011   0.8244
   9.200   1.4080   0.01489   0.00952  -0.1109   0.0011   0.8247
   9.300   1.4147   0.01510   0.00975  -0.1104   0.0011   0.8251
   9.400   1.4213   0.01533   0.00999  -0.1099   0.0011   0.8254
   9.500   1.4275   0.01557   0.01024  -0.1093   0.0011   0.8257
   9.600   1.4336   0.01583   0.01052  -0.1087   0.0011   0.8260
   9.700   1.4397   0.01609   0.01079  -0.1081   0.0010   0.8263
   9.800   1.4458   0.01636   0.01108  -0.1075   0.0010   0.8265
   9.900   1.4517   0.01664   0.01139  -0.1069   0.0010   0.8267
  10.000   1.4570   0.01696   0.01173  -0.1062   0.0010   0.8269
  10.100   1.4620   0.01731   0.01210  -0.1055   0.0010   0.8271
  10.200   1.4669   0.01767   0.01249  -0.1048   0.0010   0.8272
  10.300   1.4714   0.01806   0.01292  -0.1040   0.0010   0.8274
  10.400   1.4749   0.01852   0.01342  -0.1031   0.0010   0.8275
  10.500   1.4766   0.01909   0.01405  -0.1019   0.0010   0.8277
  10.600   1.4763   0.01979   0.01481  -0.1004   0.0010   0.8278
  10.700   1.4721   0.02078   0.01591  -0.0984   0.0010   0.8280
