  
       XFOIL         Version 6.97
  
 Calculated polar for: NACA 23012                                      
  
 1 1 Reynolds number fixed          Mach number fixed         
  
 xtrf =   1.000 (top)        1.000 (bottom)  
 Mach =   0.000     Re =     5.800 e 6     Ncrit =   9.000
  
   alpha    CL        CD       CDp       CM     Top_Xtr  Bot_Xtr
  ------ -------- --------- --------- -------- -------- --------
  -5.000  -0.4302   0.00710   0.00207  -0.0110   0.6563   0.0160
  -4.900  -0.4190   0.00707   0.00203  -0.0110   0.6473   0.0162
  -4.800  -0.4079   0.00704   0.00197  -0.0109   0.6387   0.0168
  -4.700  -0.3967   0.00700   0.00192  -0.0109   0.6308   0.0173
  -4.600  -0.3855   0.00698   0.00187  -0.0109   0.6225   0.0177
  -4.500  -0.3742   0.00695   0.00184  -0.0109   0.6146   0.0180
  -4.400  -0.3630   0.00694   0.00180  -0.0108   0.6056   0.0184
  -4.300  -0.3517   0.00692   0.00176  -0.0108   0.5964   0.0187
  -4.200  -0.3404   0.00691   0.00173  -0.0108   0.5868   0.0189
  -4.100  -0.3292   0.00691   0.00170  -0.0108   0.5759   0.0191
  -4.000  -0.3178   0.00690   0.00167  -0.0108   0.5665   0.0193
  -3.900  -0.3066   0.00689   0.00163  -0.0108   0.5562   0.0197
  -3.800  -0.2954   0.00686   0.00159  -0.0108   0.5474   0.0205
  -3.700  -0.2841   0.00685   0.00155  -0.0108   0.5391   0.0212
  -3.600  -0.2728   0.00683   0.00152  -0.0107   0.5313   0.0217
  -3.500  -0.2615   0.00682   0.00150  -0.0107   0.5230   0.0221
  -3.400  -0.2502   0.00681   0.00147  -0.0107   0.5154   0.0225
  -3.300  -0.2388   0.00681   0.00144  -0.0107   0.5067   0.0228
  -3.200  -0.2275   0.00680   0.00142  -0.0108   0.4985   0.0230
  -3.100  -0.2162   0.00679   0.00139  -0.0107   0.4892   0.0237
  -3.000  -0.2049   0.00678   0.00136  -0.0107   0.4795   0.0248
  -2.900  -0.1936   0.00678   0.00133  -0.0107   0.4704   0.0256
  -2.800  -0.1824   0.00678   0.00131  -0.0107   0.4595   0.0262
  -2.700  -0.1710   0.00677   0.00129  -0.0107   0.4513   0.0268
  -2.600  -0.1597   0.00678   0.00127  -0.0107   0.4417   0.0272
  -2.500  -0.1483   0.00677   0.00125  -0.0107   0.4350   0.0280
  -2.400  -0.1370   0.00677   0.00123  -0.0107   0.4258   0.0295
  -2.300  -0.1257   0.00676   0.00121  -0.0107   0.4196   0.0306
  -2.200  -0.1144   0.00676   0.00119  -0.0108   0.4106   0.0314
  -2.100  -0.1029   0.00676   0.00117  -0.0108   0.4043   0.0320
  -2.000  -0.0916   0.00677   0.00116  -0.0108   0.3951   0.0328
  -1.900  -0.0802   0.00676   0.00114  -0.0108   0.3880   0.0347
  -1.800  -0.0690   0.00677   0.00113  -0.0108   0.3779   0.0361
  -1.700  -0.0576   0.00677   0.00111  -0.0108   0.3705   0.0373
  -1.600  -0.0463   0.00679   0.00110  -0.0108   0.3602   0.0380
  -1.500  -0.0350   0.00678   0.00109  -0.0108   0.3531   0.0406
  -1.400  -0.0237   0.00679   0.00108  -0.0108   0.3438   0.0427
  -1.300  -0.0123   0.00679   0.00107  -0.0108   0.3382   0.0442
  -1.200  -0.0010   0.00681   0.00106  -0.0108   0.3300   0.0455
  -1.100   0.0104   0.00679   0.00105  -0.0109   0.3246   0.0488
  -1.000   0.0218   0.00680   0.00104  -0.0109   0.3178   0.0512
  -0.900   0.0331   0.00681   0.00104  -0.0109   0.3108   0.0528
  -0.800   0.0445   0.00680   0.00103  -0.0109   0.3057   0.0573
  -0.700   0.0558   0.00681   0.00103  -0.0109   0.2977   0.0611
  -0.600   0.0672   0.00680   0.00102  -0.0109   0.2926   0.0645
  -0.500   0.0785   0.00680   0.00102  -0.0109   0.2859   0.0704
  -0.400   0.0898   0.00681   0.00101  -0.0109   0.2788   0.0742
  -0.300   0.1011   0.00680   0.00101  -0.0110   0.2740   0.0828
  -0.200   0.1124   0.00680   0.00101  -0.0110   0.2672   0.0918
  -0.100   0.1236   0.00677   0.00100  -0.0110   0.2626   0.1073
   0.000   0.1346   0.00669   0.00099  -0.0109   0.2593   0.1377
   0.100   0.1434   0.00626   0.00092  -0.0106   0.2555   0.2782
   0.300   0.1648   0.00604   0.00089  -0.0105   0.2471   0.3563
   0.400   0.1757   0.00595   0.00089  -0.0105   0.2448   0.3892
   0.500   0.1866   0.00588   0.00088  -0.0105   0.2416   0.4179
   0.600   0.1977   0.00584   0.00089  -0.0105   0.2376   0.4392
   0.700   0.2088   0.00581   0.00089  -0.0105   0.2326   0.4580
   0.800   0.2200   0.00575   0.00089  -0.0105   0.2310   0.4817
   0.900   0.2311   0.00570   0.00089  -0.0104   0.2287   0.5056
   1.000   0.2421   0.00566   0.00090  -0.0104   0.2259   0.5273
   1.100   0.2533   0.00564   0.00091  -0.0104   0.2228   0.5441
   1.200   0.2645   0.00561   0.00092  -0.0104   0.2191   0.5621
   1.300   0.2757   0.00558   0.00092  -0.0104   0.2167   0.5797
   1.400   0.2871   0.00555   0.00093  -0.0105   0.2158   0.5940
   1.500   0.2984   0.00552   0.00094  -0.0105   0.2147   0.6111
   1.600   0.3096   0.00548   0.00095  -0.0105   0.2132   0.6308
   1.700   0.3208   0.00546   0.00096  -0.0105   0.2115   0.6470
   1.800   0.3321   0.00545   0.00098  -0.0105   0.2094   0.6614
   1.900   0.3433   0.00544   0.00099  -0.0105   0.2069   0.6769
   2.000   0.3544   0.00542   0.00101  -0.0105   0.2038   0.6943
   2.100   0.3656   0.00540   0.00102  -0.0105   0.2015   0.7116
   2.200   0.3768   0.00536   0.00103  -0.0105   0.2009   0.7322
   2.300   0.3879   0.00532   0.00105  -0.0104   0.2001   0.7533
   2.400   0.3991   0.00529   0.00107  -0.0104   0.1991   0.7714
   2.500   0.4103   0.00528   0.00108  -0.0104   0.1978   0.7840
   2.600   0.4218   0.00529   0.00110  -0.0105   0.1964   0.7904
   2.700   0.4331   0.00530   0.00112  -0.0105   0.1947   0.7981
   2.800   0.4445   0.00532   0.00114  -0.0105   0.1929   0.8045
   2.900   0.4558   0.00533   0.00116  -0.0105   0.1906   0.8118
   3.000   0.4672   0.00535   0.00118  -0.0105   0.1881   0.8188
   3.100   0.4787   0.00536   0.00120  -0.0106   0.1865   0.8249
   3.200   0.4900   0.00536   0.00122  -0.0106   0.1861   0.8322
   3.300   0.5015   0.00537   0.00124  -0.0106   0.1854   0.8381
   3.400   0.5129   0.00538   0.00126  -0.0107   0.1844   0.8451
   3.500   0.5242   0.00539   0.00128  -0.0107   0.1833   0.8517
   3.600   0.5356   0.00541   0.00131  -0.0107   0.1821   0.8572
   3.700   0.5468   0.00542   0.00133  -0.0107   0.1807   0.8642
   3.800   0.5582   0.00544   0.00136  -0.0107   0.1791   0.8700
   3.900   0.5694   0.00547   0.00139  -0.0107   0.1771   0.8756
   4.000   0.5806   0.00549   0.00141  -0.0107   0.1748   0.8820
   4.100   0.5920   0.00552   0.00144  -0.0107   0.1725   0.8872
   4.200   0.6032   0.00553   0.00146  -0.0107   0.1719   0.8926
   4.300   0.6145   0.00553   0.00149  -0.0107   0.1714   0.8985
   4.400   0.6259   0.00555   0.00151  -0.0108   0.1707   0.9033
   4.500   0.6372   0.00557   0.00154  -0.0108   0.1699   0.9081
   4.600   0.6483   0.00559   0.00157  -0.0107   0.1689   0.9136
   4.700   0.6596   0.00561   0.00160  -0.0107   0.1677   0.9182
   4.800   0.6708   0.00565   0.00163  -0.0108   0.1663   0.9219
   4.900   0.6817   0.00568   0.00166  -0.0107   0.1645   0.9271
   5.000   0.6928   0.00571   0.00170  -0.0107   0.1623   0.9317
   5.100   0.7040   0.00575   0.00173  -0.0107   0.1599   0.9355
   5.200   0.7151   0.00578   0.00176  -0.0106   0.1581   0.9389
   5.300   0.7261   0.00580   0.00179  -0.0106   0.1578   0.9433
   5.400   0.7372   0.00582   0.00182  -0.0105   0.1574   0.9473
   5.500   0.7484   0.00585   0.00185  -0.0105   0.1568   0.9506
   5.600   0.7597   0.00588   0.00188  -0.0106   0.1559   0.9532
   5.700   0.7704   0.00591   0.00192  -0.0105   0.1547   0.9570
   5.800   0.7812   0.00595   0.00195  -0.0104   0.1532   0.9605
   5.900   0.7921   0.00599   0.00199  -0.0103   0.1516   0.9636
   6.000   0.8030   0.00604   0.00203  -0.0103   0.1497   0.9662
   6.100   0.8140   0.00609   0.00207  -0.0102   0.1475   0.9686
   6.200   0.8247   0.00613   0.00211  -0.0101   0.1453   0.9715
   6.300   0.8355   0.00616   0.00215  -0.0100   0.1444   0.9742
   6.400   0.8465   0.00619   0.00218  -0.0100   0.1440   0.9768
   6.500   0.8574   0.00623   0.00221  -0.0099   0.1433   0.9790
   6.600   0.8684   0.00627   0.00225  -0.0099   0.1424   0.9808
   6.700   0.8798   0.00631   0.00229  -0.0100   0.1410   0.9826
   6.800   0.8912   0.00636   0.00233  -0.0100   0.1392   0.9844
   6.900   0.9026   0.00643   0.00238  -0.0101   0.1372   0.9861
   7.000   0.9139   0.00649   0.00243  -0.0102   0.1346   0.9878
   7.100   0.9249   0.00655   0.00248  -0.0102   0.1319   0.9895
   7.200   0.9358   0.00659   0.00252  -0.0101   0.1312   0.9911
   7.300   0.9475   0.00663   0.00256  -0.0103   0.1305   0.9921
   7.400   0.9602   0.00668   0.00260  -0.0106   0.1291   0.9927
   7.500   0.9728   0.00675   0.00265  -0.0110   0.1271   0.9933
   7.600   0.9852   0.00683   0.00272  -0.0114   0.1245   0.9938
   7.700   0.9977   0.00691   0.00278  -0.0117   0.1212   0.9943
   7.800   1.0103   0.00698   0.00283  -0.0121   0.1189   0.9948
   7.900   1.0229   0.00702   0.00288  -0.0125   0.1182   0.9952
   8.000   1.0355   0.00708   0.00293  -0.0128   0.1168   0.9955
   8.100   1.0479   0.00716   0.00299  -0.0132   0.1147   0.9959
   8.200   1.0602   0.00725   0.00306  -0.0135   0.1120   0.9963
   8.300   1.0724   0.00735   0.00314  -0.0138   0.1085   0.9967
   8.400   1.0848   0.00741   0.00319  -0.0142   0.1068   0.9970
   8.500   1.0972   0.00747   0.00325  -0.0145   0.1057   0.9974
   8.600   1.1095   0.00754   0.00331  -0.0148   0.1040   0.9978
   8.700   1.1216   0.00764   0.00339  -0.0151   0.1013   0.9981
   8.800   1.1335   0.00776   0.00348  -0.0154   0.0977   0.9985
   8.900   1.1457   0.00783   0.00355  -0.0157   0.0954   0.9988
   9.000   1.1579   0.00790   0.00361  -0.0160   0.0943   0.9990
   9.100   1.1700   0.00799   0.00369  -0.0163   0.0922   0.9993
   9.200   1.1818   0.00812   0.00379  -0.0165   0.0888   0.9995
   9.300   1.1936   0.00824   0.00389  -0.0168   0.0848   0.9997
   9.400   1.2058   0.00831   0.00396  -0.0171   0.0836   0.9999
   9.500   1.2170   0.00841   0.00404  -0.0172   0.0817   1.0000
   9.600   1.2254   0.00853   0.00414  -0.0167   0.0788   1.0000
   9.700   1.2339   0.00866   0.00424  -0.0163   0.0750   1.0000
   9.800   1.2431   0.00874   0.00432  -0.0159   0.0735   1.0000
   9.900   1.2519   0.00885   0.00441  -0.0155   0.0711   1.0000
  10.000   1.2603   0.00901   0.00454  -0.0151   0.0676   1.0000
  10.100   1.2694   0.00911   0.00463  -0.0147   0.0648   1.0000
  10.200   1.2788   0.00921   0.00472  -0.0144   0.0632   1.0000
  10.300   1.2876   0.00935   0.00484  -0.0141   0.0606   1.0000
  10.400   1.2963   0.00951   0.00497  -0.0137   0.0570   1.0000
  10.500   1.3058   0.00961   0.00507  -0.0134   0.0553   1.0000
  10.600   1.3149   0.00975   0.00519  -0.0131   0.0528   1.0000
  10.700   1.3237   0.00994   0.00535  -0.0128   0.0490   1.0000
  10.800   1.3334   0.01005   0.00545  -0.0126   0.0473   1.0000
  10.900   1.3426   0.01021   0.00559  -0.0123   0.0449   1.0000
  11.000   1.3516   0.01039   0.00575  -0.0121   0.0418   1.0000
  11.100   1.3614   0.01050   0.00585  -0.0119   0.0406   1.0000
  11.200   1.3709   0.01064   0.00599  -0.0117   0.0388   1.0000
  11.300   1.3799   0.01083   0.00615  -0.0114   0.0364   1.0000
  11.400   1.3896   0.01095   0.00627  -0.0112   0.0348   1.0000
  11.500   1.3992   0.01109   0.00639  -0.0111   0.0336   1.0000
  11.600   1.4083   0.01126   0.00655  -0.0108   0.0318   1.0000
  11.700   1.4176   0.01142   0.00670  -0.0106   0.0298   1.0000
  11.800   1.4272   0.01155   0.00682  -0.0104   0.0289   1.0000
  11.900   1.4365   0.01172   0.00698  -0.0102   0.0275   1.0000
  12.000   1.4454   0.01190   0.00715  -0.0100   0.0257   1.0000
  12.100   1.4550   0.01203   0.00728  -0.0098   0.0248   1.0000
  12.200   1.4645   0.01217   0.00741  -0.0096   0.0240   1.0000
  12.300   1.4737   0.01233   0.00757  -0.0094   0.0230   1.0000
  12.400   1.4827   0.01251   0.00774  -0.0092   0.0219   1.0000
  12.500   1.4920   0.01266   0.00788  -0.0090   0.0209   1.0000
  12.600   1.5015   0.01279   0.00801  -0.0088   0.0205   1.0000
  12.700   1.5107   0.01293   0.00815  -0.0086   0.0199   1.0000
  12.800   1.5197   0.01310   0.00832  -0.0084   0.0191   1.0000
  12.900   1.5285   0.01328   0.00849  -0.0081   0.0182   1.0000
  13.000   1.5375   0.01344   0.00865  -0.0079   0.0175   1.0000
  13.100   1.5468   0.01357   0.00878  -0.0077   0.0172   1.0000
  13.200   1.5559   0.01372   0.00893  -0.0075   0.0168   1.0000
  13.300   1.5648   0.01388   0.00910  -0.0072   0.0162   1.0000
  13.400   1.5733   0.01407   0.00928  -0.0070   0.0156   1.0000
  13.500   1.5818   0.01426   0.00946  -0.0067   0.0149   1.0000
  13.600   1.5905   0.01443   0.00963  -0.0064   0.0144   1.0000
  13.700   1.5994   0.01457   0.00978  -0.0062   0.0141   1.0000
  13.800   1.6081   0.01473   0.00994  -0.0059   0.0138   1.0000
  13.900   1.6166   0.01490   0.01012  -0.0056   0.0135   1.0000
  14.000   1.6249   0.01508   0.01030  -0.0053   0.0131   1.0000
  14.100   1.6330   0.01528   0.01050  -0.0050   0.0127   1.0000
  14.200   1.6409   0.01548   0.01070  -0.0046   0.0122   1.0000
  14.300   1.6489   0.01567   0.01089  -0.0043   0.0118   1.0000
  14.400   1.6573   0.01583   0.01106  -0.0040   0.0116   1.0000
  14.500   1.6655   0.01600   0.01123  -0.0037   0.0115   1.0000
  14.600   1.6735   0.01617   0.01141  -0.0033   0.0113   1.0000
  14.700   1.6814   0.01636   0.01160  -0.0030   0.0111   1.0000
  14.800   1.6890   0.01655   0.01180  -0.0026   0.0109   1.0000
  14.900   1.6963   0.01676   0.01201  -0.0021   0.0106   1.0000
  15.000   1.7033   0.01698   0.01224  -0.0017   0.0104   1.0000
  15.100   1.7101   0.01721   0.01247  -0.0012   0.0100   1.0000
  15.200   1.7166   0.01743   0.01270  -0.0006   0.0097   1.0000
  15.300   1.7224   0.01765   0.01293   0.0001   0.0094   1.0000
  15.400   1.7284   0.01784   0.01313   0.0007   0.0093   1.0000
  15.500   1.7340   0.01804   0.01333   0.0015   0.0093   1.0000
  15.600   1.7395   0.01825   0.01355   0.0022   0.0092   1.0000
  15.700   1.7449   0.01846   0.01378   0.0029   0.0091   1.0000
  15.800   1.7500   0.01870   0.01403   0.0037   0.0090   1.0000
  15.900   1.7550   0.01895   0.01428   0.0044   0.0089   1.0000
  16.000   1.7598   0.01921   0.01456   0.0051   0.0087   1.0000
  16.100   1.7644   0.01949   0.01485   0.0058   0.0086   1.0000
  16.200   1.7686   0.01980   0.01517   0.0066   0.0084   1.0000
  16.300   1.7727   0.02012   0.01550   0.0073   0.0082   1.0000
  16.400   1.7765   0.02047   0.01586   0.0081   0.0080   1.0000
  16.500   1.7802   0.02083   0.01623   0.0088   0.0078   1.0000
  16.600   1.7837   0.02121   0.01662   0.0095   0.0076   1.0000
  16.700   1.7873   0.02159   0.01702   0.0101   0.0074   1.0000
  16.800   1.7915   0.02196   0.01740   0.0107   0.0073   1.0000
  16.900   1.7958   0.02231   0.01777   0.0112   0.0073   1.0000
  17.000   1.7998   0.02270   0.01817   0.0118   0.0073   1.0000
  17.100   1.8037   0.02310   0.01859   0.0123   0.0072   1.0000
  17.200   1.8073   0.02353   0.01904   0.0128   0.0072   1.0000
  17.300   1.8109   0.02398   0.01950   0.0132   0.0071   1.0000
  17.400   1.8141   0.02446   0.02000   0.0137   0.0071   1.0000
  17.500   1.8171   0.02497   0.02053   0.0141   0.0070   1.0000
  17.600   1.8198   0.02551   0.02109   0.0146   0.0069   1.0000
  17.700   1.8224   0.02609   0.02169   0.0149   0.0068   1.0000
  17.800   1.8247   0.02670   0.02232   0.0153   0.0068   1.0000
  17.900   1.8266   0.02737   0.02300   0.0156   0.0067   1.0000
  18.000   1.8283   0.02806   0.02371   0.0159   0.0066   1.0000
  18.100   1.8296   0.02880   0.02448   0.0162   0.0065   1.0000
  18.200   1.8305   0.02961   0.02530   0.0164   0.0064   1.0000
  18.300   1.8312   0.03046   0.02618   0.0166   0.0064   1.0000
  18.400   1.8317   0.03136   0.02710   0.0167   0.0063   1.0000
  18.500   1.8319   0.03232   0.02808   0.0167   0.0062   1.0000
  18.600   1.8315   0.03334   0.02913   0.0168   0.0061   1.0000
  18.700   1.8307   0.03443   0.03024   0.0167   0.0060   1.0000
  18.800   1.8297   0.03558   0.03142   0.0166   0.0059   1.0000
  18.900   1.8282   0.03680   0.03267   0.0165   0.0058   1.0000
  19.000   1.8264   0.03810   0.03400   0.0163   0.0057   1.0000
  19.100   1.8242   0.03947   0.03540   0.0160   0.0056   1.0000
  19.200   1.8226   0.04079   0.03676   0.0157   0.0056   1.0000
  19.300   1.8204   0.04218   0.03818   0.0153   0.0056   1.0000
  19.400   1.8176   0.04368   0.03970   0.0149   0.0056   1.0000
  19.500   1.8143   0.04527   0.04133   0.0144   0.0056   1.0000
  19.600   1.8104   0.04696   0.04306   0.0139   0.0056   1.0000
  19.700   1.8058   0.04876   0.04490   0.0133   0.0056   1.0000
  19.800   1.8005   0.05068   0.04686   0.0126   0.0056   1.0000
  19.900   1.7943   0.05273   0.04895   0.0119   0.0056   1.0000
  20.000   1.7871   0.05493   0.05119   0.0111   0.0055   1.0000
  20.100   1.7790   0.05729   0.05359   0.0101   0.0055   1.0000
  20.200   1.7700   0.05981   0.05616   0.0092   0.0055   1.0000
  20.300   1.7599   0.06250   0.05890   0.0081   0.0055   1.0000
  20.400   1.7486   0.06538   0.06183   0.0069   0.0055   1.0000
  20.500   1.7358   0.06846   0.06496   0.0056   0.0055   1.0000
  20.600   1.7214   0.07183   0.06839   0.0042   0.0055   1.0000
  20.700   1.7047   0.07559   0.07222   0.0026   0.0055   1.0000
  20.800   1.6866   0.07958   0.07628   0.0009   0.0055   1.0000
  20.900   1.6673   0.08372   0.08048  -0.0008   0.0056   1.0000
  21.000   1.6473   0.08804   0.08487  -0.0027   0.0056   1.0000
  21.100   1.6266   0.09253   0.08943  -0.0047   0.0056   1.0000
  21.200   1.6050   0.09719   0.09415  -0.0068   0.0056   1.0000
  21.300   1.5826   0.10197   0.09900  -0.0090   0.0056   1.0000
  21.400   1.5603   0.10684   0.10395  -0.0113   0.0056   1.0000
  21.500   1.5384   0.11173   0.10891  -0.0136   0.0056   1.0000
  21.600   1.5181   0.11638   0.11362  -0.0159   0.0056   1.0000
  21.700   1.5046   0.11992   0.11720  -0.0176   0.0056   1.0000
  21.800   1.4850   0.12458   0.12192  -0.0200   0.0057   1.0000
  21.900   1.4750   0.12764   0.12502  -0.0216   0.0056   1.0000
  22.000   1.4577   0.13203   0.12946  -0.0239   0.0057   1.0000
  22.100   1.4493   0.13488   0.13234  -0.0255   0.0057   1.0000
  22.200   1.4344   0.13889   0.13641  -0.0277   0.0057   1.0000
  22.300   1.4254   0.14186   0.13941  -0.0294   0.0057   1.0000
  22.400   1.4194   0.14432   0.14190  -0.0308   0.0056   1.0000
  22.500   1.4053   0.14835   0.14598  -0.0332   0.0056   1.0000
  22.600   1.3995   0.15086   0.14852  -0.0347   0.0056   1.0000
  22.700   1.3957   0.15301   0.15068  -0.0360   0.0056   1.0000
  22.800   1.3919   0.15515   0.15285  -0.0373   0.0056   1.0000
  22.900   1.3791   0.15908   0.15683  -0.0397   0.0056   1.0000
  23.000   1.3754   0.16126   0.15903  -0.0411   0.0056   1.0000
  23.100   1.3731   0.16315   0.16094  -0.0424   0.0056   1.0000
  23.200   1.3707   0.16506   0.16287  -0.0436   0.0056   1.0000
  23.300   1.3671   0.16720   0.16503  -0.0450   0.0056   1.0000
  23.400   1.3559   0.17091   0.16879  -0.0474   0.0056   1.0000
  23.500   1.3542   0.17274   0.17063  -0.0487   0.0056   1.0000
  23.600   1.3528   0.17452   0.17242  -0.0499   0.0055   1.0000
  23.700   1.3511   0.17634   0.17426  -0.0512   0.0055   1.0000
  23.800   1.3486   0.17835   0.17629  -0.0526   0.0055   1.0000
  23.900   1.3387   0.18195   0.17994  -0.0550   0.0055   1.0000
  24.000   1.3375   0.18373   0.18173  -0.0563   0.0055   1.0000
  24.100   1.3367   0.18542   0.18344  -0.0576   0.0054   1.0000
  24.200   1.3357   0.18715   0.18518  -0.0588   0.0054   1.0000
  24.300   1.3345   0.18893   0.18698  -0.0602   0.0054   1.0000
  24.400   1.3253   0.19252   0.19061  -0.0627   0.0054   1.0000
  24.500   1.3238   0.19439   0.19250  -0.0641   0.0053   1.0000
  24.600   1.3232   0.19607   0.19419  -0.0654   0.0053   1.0000
  24.700   1.3227   0.19772   0.19585  -0.0667   0.0053   1.0000
  24.800   1.3224   0.19933   0.19747  -0.0679   0.0052   1.0000
  24.900   1.3215   0.20106   0.19922  -0.0693   0.0052   1.0000
  25.000   1.3124   0.20470   0.20290  -0.0719   0.0052   1.0000
