  
       XFOIL         Version 6.97
  
 Calculated polar for: P-51D ROOT (BL17.5) AIRFOIL                     
  
 1 1 Reynolds number fixed          Mach number fixed         
  
 xtrf =   1.000 (top)        1.000 (bottom)  
 Mach =   0.000     Re =     5.800 e 6     Ncrit =   9.000
  
   alpha    CL        CD       CDp       CM     Top_Xtr  Bot_Xtr
  ------ -------- --------- --------- -------- -------- --------
  -5.000  -0.3910   0.00743   0.00212  -0.0365   0.5359   0.0492
  -4.900  -0.3797   0.00739   0.00209  -0.0365   0.5334   0.0504
  -4.800  -0.3684   0.00736   0.00205  -0.0366   0.5310   0.0513
  -4.700  -0.3570   0.00732   0.00202  -0.0367   0.5296   0.0526
  -4.600  -0.3457   0.00727   0.00198  -0.0367   0.5292   0.0544
  -4.500  -0.3344   0.00722   0.00194  -0.0368   0.5287   0.0558
  -4.400  -0.3230   0.00718   0.00191  -0.0368   0.5280   0.0569
  -4.200  -0.3003   0.00709   0.00184  -0.0370   0.5260   0.0611
  -4.100  -0.2890   0.00705   0.00180  -0.0370   0.5248   0.0634
  -4.000  -0.2778   0.00699   0.00176  -0.0371   0.5235   0.0677
  -3.900  -0.2668   0.00693   0.00172  -0.0371   0.5222   0.0737
  -3.800  -0.2560   0.00683   0.00166  -0.0371   0.5210   0.0840
  -3.700  -0.2451   0.00674   0.00161  -0.0371   0.5196   0.0954
  -3.600  -0.2342   0.00666   0.00157  -0.0371   0.5182   0.1054
  -3.500  -0.2232   0.00659   0.00153  -0.0371   0.5166   0.1142
  -3.400  -0.2118   0.00655   0.00150  -0.0372   0.5148   0.1196
  -3.300  -0.2007   0.00649   0.00146  -0.0372   0.5127   0.1265
  -3.200  -0.1892   0.00647   0.00144  -0.0373   0.5105   0.1300
  -3.100  -0.1780   0.00641   0.00141  -0.0373   0.5084   0.1373
  -3.000  -0.1665   0.00637   0.00139  -0.0374   0.5065   0.1420
  -2.900  -0.1552   0.00632   0.00136  -0.0375   0.5060   0.1494
  -2.800  -0.1438   0.00626   0.00133  -0.0376   0.5057   0.1559
  -2.700  -0.1323   0.00622   0.00131  -0.0377   0.5054   0.1636
  -2.600  -0.1210   0.00615   0.00128  -0.0377   0.5049   0.1720
  -2.500  -0.1097   0.00609   0.00125  -0.0378   0.5044   0.1819
  -2.400  -0.0983   0.00603   0.00122  -0.0379   0.5038   0.1906
  -2.300  -0.0872   0.00595   0.00118  -0.0379   0.5031   0.2051
  -2.200  -0.0763   0.00584   0.00114  -0.0379   0.5021   0.2251
  -2.100  -0.0668   0.00557   0.00104  -0.0378   0.5010   0.2793
  -1.900  -0.0449   0.00538   0.00097  -0.0378   0.4979   0.3190
  -1.800  -0.0339   0.00529   0.00094  -0.0379   0.4960   0.3383
  -1.700  -0.0231   0.00519   0.00090  -0.0379   0.4939   0.3601
  -1.600  -0.0123   0.00509   0.00086  -0.0379   0.4916   0.3835
  -1.500  -0.0014   0.00499   0.00083  -0.0379   0.4894   0.4066
  -1.400   0.0096   0.00490   0.00079  -0.0379   0.4873   0.4279
  -1.300   0.0205   0.00479   0.00076  -0.0379   0.4855   0.4523
  -1.200   0.0316   0.00471   0.00075  -0.0380   0.4838   0.4727
  -1.100   0.0428   0.00464   0.00073  -0.0380   0.4832   0.4897
  -1.000   0.0544   0.00460   0.00073  -0.0381   0.4829   0.4996
  -0.900   0.0660   0.00457   0.00072  -0.0382   0.4825   0.5086
  -0.800   0.0779   0.00456   0.00072  -0.0384   0.4821   0.5121
  -0.700   0.0897   0.00455   0.00072  -0.0385   0.4816   0.5167
  -0.600   0.1014   0.00453   0.00072  -0.0386   0.4811   0.5227
  -0.500   0.1132   0.00452   0.00072  -0.0387   0.4806   0.5267
  -0.400   0.1250   0.00451   0.00072  -0.0389   0.4800   0.5293
  -0.300   0.1369   0.00451   0.00072  -0.0390   0.4793   0.5312
  -0.200   0.1488   0.00452   0.00072  -0.0392   0.4785   0.5324
  -0.100   0.1606   0.00453   0.00073  -0.0393   0.4777   0.5332
   0.000   0.1725   0.00453   0.00073  -0.0394   0.4767   0.5355
   0.100   0.1842   0.00453   0.00073  -0.0395   0.4756   0.5392
   0.200   0.1959   0.00452   0.00074  -0.0397   0.4743   0.5428
   0.300   0.2076   0.00453   0.00074  -0.0398   0.4726   0.5460
   0.400   0.2193   0.00454   0.00075  -0.0399   0.4705   0.5484
   0.500   0.2309   0.00455   0.00076  -0.0400   0.4677   0.5501
   0.600   0.2427   0.00457   0.00076  -0.0401   0.4645   0.5513
   0.700   0.2544   0.00458   0.00077  -0.0402   0.4619   0.5521
   0.800   0.2663   0.00459   0.00078  -0.0404   0.4610   0.5528
   0.900   0.2782   0.00460   0.00078  -0.0405   0.4607   0.5534
   1.000   0.2901   0.00460   0.00079  -0.0407   0.4603   0.5539
   1.100   0.3020   0.00461   0.00079  -0.0408   0.4599   0.5542
   1.200   0.3139   0.00461   0.00080  -0.0410   0.4593   0.5554
   1.300   0.3257   0.00461   0.00081  -0.0411   0.4586   0.5576
   1.400   0.3375   0.00461   0.00081  -0.0412   0.4576   0.5600
   1.500   0.3492   0.00462   0.00082  -0.0413   0.4563   0.5626
   1.600   0.3609   0.00462   0.00083  -0.0415   0.4546   0.5652
   1.700   0.3726   0.00463   0.00085  -0.0416   0.4526   0.5677
   1.800   0.3842   0.00465   0.00086  -0.0417   0.4504   0.5699
   1.900   0.3958   0.00467   0.00087  -0.0418   0.4479   0.5716
   2.000   0.4073   0.00469   0.00089  -0.0419   0.4443   0.5728
   2.100   0.4190   0.00472   0.00090  -0.0420   0.4402   0.5736
   2.200   0.4308   0.00473   0.00091  -0.0421   0.4391   0.5741
   2.300   0.4426   0.00474   0.00092  -0.0422   0.4376   0.5746
   2.400   0.4543   0.00476   0.00093  -0.0423   0.4354   0.5749
   2.500   0.4659   0.00479   0.00095  -0.0424   0.4321   0.5752
   2.600   0.4772   0.00483   0.00097  -0.0425   0.4274   0.5754
   2.700   0.4884   0.00488   0.00099  -0.0425   0.4201   0.5756
   2.800   0.5000   0.00491   0.00101  -0.0426   0.4163   0.5758
   2.900   0.5105   0.00501   0.00105  -0.0425   0.4026   0.5759
   3.000   0.5205   0.00515   0.00110  -0.0424   0.3831   0.5763
   3.100   0.5244   0.00572   0.00134  -0.0412   0.3027   0.5773
   3.200   0.5333   0.00594   0.00144  -0.0409   0.2725   0.5785
   3.300   0.5433   0.00607   0.00151  -0.0407   0.2551   0.5799
   3.400   0.5532   0.00620   0.00158  -0.0406   0.2381   0.5815
   3.500   0.5635   0.00631   0.00163  -0.0405   0.2256   0.5832
   3.600   0.5733   0.00645   0.00170  -0.0403   0.2071   0.5849
   3.700   0.5821   0.00666   0.00180  -0.0399   0.1793   0.5864
   3.800   0.5915   0.00683   0.00189  -0.0397   0.1600   0.5877
   3.900   0.6016   0.00694   0.00195  -0.0396   0.1486   0.5890
   4.000   0.6123   0.00701   0.00200  -0.0395   0.1431   0.5900
   4.100   0.6229   0.00709   0.00205  -0.0394   0.1365   0.5910
   4.200   0.6339   0.00713   0.00209  -0.0394   0.1340   0.5918
   4.300   0.6449   0.00718   0.00213  -0.0395   0.1315   0.5926
   4.400   0.6558   0.00724   0.00217  -0.0394   0.1285   0.5933
   4.500   0.6665   0.00730   0.00221  -0.0394   0.1249   0.5938
   4.600   0.6775   0.00735   0.00225  -0.0394   0.1218   0.5944
   4.700   0.6886   0.00739   0.00228  -0.0394   0.1207   0.5949
   4.800   0.6996   0.00743   0.00232  -0.0394   0.1186   0.5953
   4.900   0.7102   0.00750   0.00237  -0.0393   0.1152   0.5957
   5.000   0.7207   0.00758   0.00242  -0.0393   0.1105   0.5961
   5.100   0.7316   0.00762   0.00246  -0.0393   0.1084   0.5964
   5.200   0.7420   0.00771   0.00251  -0.0391   0.1037   0.5967
   5.300   0.7522   0.00779   0.00257  -0.0390   0.0982   0.5970
   5.400   0.7620   0.00790   0.00264  -0.0388   0.0912   0.5972
   5.500   0.7720   0.00801   0.00271  -0.0387   0.0845   0.5975
   5.600   0.7815   0.00813   0.00279  -0.0384   0.0767   0.5977
   5.700   0.7909   0.00826   0.00288  -0.0381   0.0693   0.5978
   5.800   0.8004   0.00838   0.00296  -0.0379   0.0630   0.5980
   5.900   0.8099   0.00849   0.00305  -0.0376   0.0575   0.5981
   6.000   0.8195   0.00860   0.00313  -0.0374   0.0531   0.5983
   6.100   0.8295   0.00868   0.00319  -0.0372   0.0501   0.5985
   6.200   0.8391   0.00878   0.00327  -0.0370   0.0464   0.5997
   6.300   0.8490   0.00886   0.00334  -0.0368   0.0436   0.6010
   6.400   0.8585   0.00895   0.00341  -0.0366   0.0404   0.6024
   6.500   0.8679   0.00905   0.00349  -0.0363   0.0370   0.6038
   6.600   0.8774   0.00914   0.00357  -0.0360   0.0342   0.6054
   6.700   0.8867   0.00924   0.00365  -0.0357   0.0311   0.6068
   6.800   0.8959   0.00934   0.00374  -0.0354   0.0285   0.6082
   6.900   0.9054   0.00942   0.00381  -0.0352   0.0266   0.6095
   7.000   0.9146   0.00952   0.00390  -0.0349   0.0247   0.6106
   7.100   0.9240   0.00960   0.00397  -0.0346   0.0233   0.6116
   7.200   0.9334   0.00968   0.00404  -0.0343   0.0221   0.6126
   7.300   0.9424   0.00978   0.00413  -0.0340   0.0203   0.6135
   7.400   0.9518   0.00985   0.00420  -0.0337   0.0194   0.6143
   7.500   0.9607   0.00995   0.00429  -0.0334   0.0180   0.6151
   7.600   0.9695   0.01005   0.00437  -0.0330   0.0165   0.6159
   7.700   0.9785   0.01013   0.00445  -0.0326   0.0156   0.6166
   7.800   0.9869   0.01024   0.00455  -0.0322   0.0141   0.6172
   7.900   0.9957   0.01033   0.00463  -0.0318   0.0132   0.6178
   8.000   1.0041   0.01043   0.00472  -0.0314   0.0122   0.6184
   8.100   1.0120   0.01054   0.00483  -0.0308   0.0108   0.6189
   8.200   1.0156   0.01081   0.00507  -0.0295   0.0052   0.6193
   8.300   1.0194   0.01106   0.00531  -0.0282   0.0012   0.6197
   8.400   1.0266   0.01114   0.00540  -0.0275   0.0010   0.6201
   8.500   1.0325   0.01121   0.00546  -0.0266   0.0010   0.6204
   8.600   1.0381   0.01128   0.00554  -0.0255   0.0010   0.6206
   8.700   1.0441   0.01137   0.00562  -0.0246   0.0010   0.6209
   8.800   1.0502   0.01146   0.00572  -0.0237   0.0010   0.6211
   8.900   1.0561   0.01156   0.00582  -0.0228   0.0010   0.6213
   9.000   1.0620   0.01166   0.00592  -0.0219   0.0010   0.6223
   9.100   1.0679   0.01176   0.00602  -0.0210   0.0010   0.6238
   9.200   1.0738   0.01187   0.00614  -0.0201   0.0010   0.6255
   9.300   1.0798   0.01198   0.00625  -0.0192   0.0009   0.6273
   9.400   1.0856   0.01209   0.00637  -0.0183   0.0009   0.6291
   9.500   1.0915   0.01221   0.00649  -0.0175   0.0009   0.6307
   9.600   1.0976   0.01233   0.00662  -0.0167   0.0009   0.6322
   9.700   1.1036   0.01245   0.00674  -0.0159   0.0009   0.6336
   9.800   1.1095   0.01258   0.00688  -0.0151   0.0009   0.6349
   9.900   1.1155   0.01270   0.00701  -0.0143   0.0009   0.6361
  10.000   1.1217   0.01283   0.00714  -0.0135   0.0009   0.6373
  10.100   1.1279   0.01296   0.00728  -0.0128   0.0009   0.6385
  10.200   1.1338   0.01309   0.00742  -0.0120   0.0009   0.6395
  10.300   1.1397   0.01323   0.00756  -0.0112   0.0009   0.6405
  10.400   1.1458   0.01338   0.00771  -0.0105   0.0009   0.6414
  10.500   1.1521   0.01352   0.00785  -0.0098   0.0009   0.6422
  10.600   1.1583   0.01366   0.00800  -0.0091   0.0009   0.6429
  10.700   1.1641   0.01382   0.00816  -0.0083   0.0009   0.6434
  10.800   1.1698   0.01398   0.00832  -0.0076   0.0009   0.6439
  10.900   1.1756   0.01414   0.00848  -0.0068   0.0009   0.6442
  11.000   1.1817   0.01429   0.00864  -0.0061   0.0009   0.6456
  11.100   1.1878   0.01445   0.00881  -0.0055   0.0008   0.6479
  11.200   1.1940   0.01461   0.00897  -0.0048   0.0008   0.6503
  11.300   1.1996   0.01478   0.00915  -0.0041   0.0008   0.6526
  11.400   1.2048   0.01496   0.00934  -0.0033   0.0008   0.6547
  11.500   1.2102   0.01514   0.00953  -0.0025   0.0008   0.6565
  11.600   1.2159   0.01532   0.00972  -0.0018   0.0008   0.6582
  11.700   1.2218   0.01550   0.00991  -0.0012   0.0008   0.6598
  11.800   1.2277   0.01568   0.01010  -0.0005   0.0008   0.6613
  11.900   1.2336   0.01587   0.01029   0.0001   0.0008   0.6627
  12.000   1.2388   0.01607   0.01050   0.0009   0.0008   0.6640
  12.100   1.2436   0.01629   0.01072   0.0016   0.0008   0.6651
  12.200   1.2487   0.01650   0.01095   0.0024   0.0008   0.6660
  12.300   1.2541   0.01671   0.01116   0.0030   0.0008   0.6668
  12.500   1.2653   0.01713   0.01160   0.0043   0.0008   0.6716
  12.600   1.2709   0.01735   0.01183   0.0049   0.0008   0.6748
  12.700   1.2756   0.01759   0.01208   0.0057   0.0008   0.6777
  12.800   1.2799   0.01784   0.01235   0.0064   0.0008   0.6803
  12.900   1.2846   0.01808   0.01260   0.0071   0.0008   0.6827
  13.000   1.2897   0.01833   0.01286   0.0078   0.0008   0.6849
  13.100   1.2949   0.01857   0.01311   0.0084   0.0008   0.6870
  13.200   1.3002   0.01881   0.01336   0.0090   0.0008   0.6889
  13.400   1.3089   0.01937   0.01395   0.0104   0.0008   0.6977
  13.500   1.3130   0.01966   0.01426   0.0111   0.0008   0.7027
  13.600   1.3176   0.01994   0.01456   0.0118   0.0008   0.7074
  13.700   1.3224   0.02021   0.01485   0.0124   0.0008   0.7118
  13.800   1.3272   0.02048   0.01515   0.0130   0.0008   0.7217
  13.900   1.3311   0.02078   0.01548   0.0136   0.0008   0.7322
  14.000   1.3342   0.02110   0.01585   0.0144   0.0008   0.7505
  14.100   1.3366   0.02132   0.01622   0.0154   0.0008   0.8072
  14.200   1.3382   0.02151   0.01657   0.0166   0.0008   0.8693
  14.300   1.3401   0.02174   0.01690   0.0177   0.0008   0.9019
  14.400   1.3695   0.02211   0.01744   0.0132   0.0008   0.9689
  14.500   1.4138   0.02277   0.01809   0.0054   0.0008   0.9698
  14.600   1.4530   0.02338   0.01871  -0.0012   0.0008   0.9772
  14.800   1.4112   0.02390   0.01928   0.0100   0.0008   0.9971
  14.900   1.4208   0.02434   0.01973   0.0093   0.0008   0.9977
  15.000   1.4313   0.02479   0.02019   0.0085   0.0008   0.9982
  15.100   1.4418   0.02530   0.02070   0.0076   0.0008   0.9987
  15.200   1.4525   0.02585   0.02126   0.0066   0.0008   0.9990
  15.300   1.4637   0.02639   0.02181   0.0055   0.0008   0.9993
  15.400   1.4751   0.02693   0.02235   0.0043   0.0008   0.9995
  15.500   1.4864   0.02746   0.02289   0.0032   0.0008   0.9997
  15.600   1.4970   0.02803   0.02347   0.0022   0.0008   0.9999
  15.700   1.5052   0.02865   0.02410   0.0015   0.0008   1.0000
  15.800   1.5089   0.02921   0.02468   0.0018   0.0008   1.0000
  15.900   1.5130   0.02975   0.02522   0.0020   0.0008   1.0000
  16.000   1.5170   0.03030   0.02579   0.0023   0.0008   1.0000
  16.100   1.5200   0.03095   0.02645   0.0025   0.0008   1.0000
  16.200   1.5234   0.03156   0.02707   0.0027   0.0008   1.0000
  16.300   1.5272   0.03214   0.02766   0.0029   0.0008   1.0000
  16.400   1.5305   0.03276   0.02830   0.0031   0.0008   1.0000
  16.500   1.5332   0.03347   0.02903   0.0033   0.0008   1.0000
  16.600   1.5364   0.03413   0.02970   0.0034   0.0008   1.0000
  16.700   1.5398   0.03475   0.03034   0.0036   0.0008   1.0000
  16.800   1.5428   0.03544   0.03104   0.0037   0.0008   1.0000
  16.900   1.5450   0.03622   0.03184   0.0039   0.0008   1.0000
  17.000   1.5479   0.03693   0.03256   0.0040   0.0008   1.0000
  17.100   1.5511   0.03761   0.03325   0.0041   0.0008   1.0000
  17.200   1.5537   0.03834   0.03399   0.0042   0.0008   1.0000
  17.300   1.5554   0.03920   0.03488   0.0043   0.0008   1.0000
  17.400   1.5578   0.03997   0.03566   0.0044   0.0008   1.0000
  17.500   1.5604   0.04070   0.03640   0.0045   0.0008   1.0000
  17.600   1.5628   0.04144   0.03716   0.0046   0.0008   1.0000
  17.700   1.5638   0.04239   0.03812   0.0046   0.0008   1.0000
  17.800   1.5655   0.04324   0.03900   0.0047   0.0008   1.0000
  17.900   1.5676   0.04404   0.03981   0.0047   0.0008   1.0000
  18.000   1.5700   0.04482   0.04060   0.0048   0.0008   1.0000
  18.100   1.5710   0.04576   0.04156   0.0048   0.0008   1.0000
  18.200   1.5716   0.04676   0.04259   0.0048   0.0008   1.0000
  18.300   1.5731   0.04765   0.04348   0.0048   0.0008   1.0000
  18.400   1.5750   0.04849   0.04435   0.0049   0.0008   1.0000
  18.500   1.5768   0.04934   0.04521   0.0049   0.0008   1.0000
  18.600   1.5765   0.05046   0.04635   0.0048   0.0008   1.0000
  18.700   1.5767   0.05150   0.04741   0.0048   0.0008   1.0000
  18.800   1.5778   0.05243   0.04836   0.0048   0.0008   1.0000
  18.900   1.5791   0.05334   0.04928   0.0048   0.0008   1.0000
  19.000   1.5804   0.05425   0.05022   0.0048   0.0008   1.0000
  19.100   1.5791   0.05552   0.05150   0.0046   0.0008   1.0000
  19.200   1.5789   0.05664   0.05266   0.0045   0.0008   1.0000
  19.300   1.5796   0.05766   0.05368   0.0044   0.0008   1.0000
  19.400   1.5805   0.05864   0.05468   0.0044   0.0008   1.0000
  19.500   1.5814   0.05962   0.05569   0.0043   0.0008   1.0000
  19.600   1.5797   0.06097   0.05706   0.0041   0.0008   1.0000
  19.700   1.5785   0.06224   0.05835   0.0039   0.0008   1.0000
  19.800   1.5786   0.06334   0.05947   0.0038   0.0008   1.0000
  19.900   1.5790   0.06439   0.06054   0.0037   0.0008   1.0000
  20.000   1.5793   0.06545   0.06162   0.0036   0.0008   1.0000
  20.100   1.5772   0.06686   0.06305   0.0034   0.0008   1.0000
  20.200   1.5750   0.06829   0.06451   0.0031   0.0008   1.0000
  20.300   1.5744   0.06950   0.06574   0.0029   0.0008   1.0000
  20.400   1.5743   0.07066   0.06692   0.0027   0.0008   1.0000
  20.500   1.5742   0.07181   0.06809   0.0025   0.0008   1.0000
  20.600   1.5716   0.07333   0.06963   0.0022   0.0008   1.0000
  20.700   1.5684   0.07492   0.07126   0.0018   0.0008   1.0000
  20.800   1.5674   0.07623   0.07258   0.0016   0.0008   1.0000
  20.900   1.5667   0.07747   0.07385   0.0013   0.0008   1.0000
  21.000   1.5659   0.07872   0.07512   0.0011   0.0008   1.0000
  21.100   1.5612   0.08052   0.07696   0.0006   0.0008   1.0000
  21.200   1.5581   0.08212   0.07858   0.0002   0.0008   1.0000
  21.300   1.5566   0.08351   0.07999  -0.0001   0.0008   1.0000
  21.400   1.5552   0.08486   0.08137  -0.0004   0.0008   1.0000
  21.500   1.5529   0.08636   0.08289  -0.0008   0.0008   1.0000
  21.600   1.5468   0.08845   0.08501  -0.0014   0.0008   1.0000
  21.700   1.5443   0.09001   0.08659  -0.0019   0.0008   1.0000
  21.800   1.5423   0.09148   0.08809  -0.0023   0.0008   1.0000
  21.900   1.5399   0.09301   0.08964  -0.0027   0.0008   1.0000
  22.000   1.5326   0.09530   0.09197  -0.0035   0.0008   1.0000
  22.100   1.5292   0.09697   0.09368  -0.0040   0.0008   1.0000
  22.200   1.5264   0.09856   0.09528  -0.0045   0.0008   1.0000
  22.300   1.5205   0.10061   0.09737  -0.0051   0.0008   1.0000
  22.400   1.5144   0.10275   0.09954  -0.0059   0.0008   1.0000
  22.500   1.5109   0.10448   0.10130  -0.0065   0.0008   1.0000
  22.600   1.5061   0.10640   0.10325  -0.0071   0.0008   1.0000
  22.700   1.4979   0.10890   0.10579  -0.0081   0.0008   1.0000
  22.800   1.4937   0.11076   0.10768  -0.0088   0.0008   1.0000
  22.900   1.4862   0.11315   0.11011  -0.0097   0.0008   1.0000
  23.000   1.4792   0.11547   0.11246  -0.0107   0.0008   1.0000
  23.100   1.4745   0.11740   0.11442  -0.0114   0.0008   1.0000
  23.200   1.4636   0.12029   0.11736  -0.0126   0.0008   1.0000
  23.300   1.4580   0.12238   0.11948  -0.0135   0.0008   1.0000
  23.400   1.4471   0.12533   0.12248  -0.0148   0.0008   1.0000
  23.500   1.4406   0.12758   0.12476  -0.0157   0.0008   1.0000
  23.600   1.4291   0.13065   0.12788  -0.0171   0.0008   1.0000
  23.700   1.4221   0.13299   0.13026  -0.0182   0.0008   1.0000
  23.800   1.4096   0.13624   0.13355  -0.0197   0.0008   1.0000
  23.900   1.4022   0.13863   0.13598  -0.0208   0.0008   1.0000
  24.000   1.3901   0.14182   0.13921  -0.0223   0.0008   1.0000
  24.100   1.3808   0.14445   0.14188  -0.0235   0.0008   1.0000
  24.200   1.3737   0.14667   0.14413  -0.0245   0.0008   1.0000
  24.300   1.3579   0.15028   0.14780  -0.0262   0.0008   1.0000
  24.400   1.3504   0.15249   0.15004  -0.0271   0.0008   1.0000
  24.500   1.3348   0.15585   0.15345  -0.0284   0.0008   1.0000
  24.600   1.3232   0.15767   0.15530  -0.0281   0.0008   1.0000
  24.700   1.3097   0.16022   0.15788  -0.0287   0.0008   1.0000
  24.800   1.2994   0.16332   0.16102  -0.0304   0.0008   1.0000
  24.900   1.2883   0.16678   0.16453  -0.0325   0.0008   1.0000
  25.000   1.2801   0.16975   0.16754  -0.0344   0.0008   1.0000
