  
       XFOIL         Version 6.97
  
 Calculated polar for: NACA 2412                                       
  
 1 1 Reynolds number fixed          Mach number fixed         
  
 xtrf =   1.000 (top)        1.000 (bottom)  
 Mach =   0.000     Re =     5.800 e 6     Ncrit =   9.000
  
   alpha    CL        CD       CDp       CM     Top_Xtr  Bot_Xtr
  ------ -------- --------- --------- -------- -------- --------
  -5.000  -0.3254   0.00620   0.00158  -0.0517   0.7553   0.0419
  -4.900  -0.3140   0.00617   0.00155  -0.0517   0.7492   0.0432
  -4.800  -0.3027   0.00615   0.00151  -0.0517   0.7428   0.0441
  -4.700  -0.2913   0.00613   0.00148  -0.0518   0.7379   0.0453
  -4.600  -0.2800   0.00609   0.00144  -0.0518   0.7313   0.0478
  -4.500  -0.2687   0.00606   0.00140  -0.0518   0.7252   0.0496
  -4.400  -0.2573   0.00603   0.00137  -0.0518   0.7195   0.0511
  -4.300  -0.2460   0.00602   0.00134  -0.0518   0.7126   0.0525
  -4.200  -0.2346   0.00598   0.00131  -0.0518   0.7073   0.0558
  -4.100  -0.2233   0.00595   0.00127  -0.0518   0.7009   0.0581
  -4.000  -0.2120   0.00594   0.00124  -0.0518   0.6937   0.0597
  -3.900  -0.2005   0.00592   0.00122  -0.0519   0.6885   0.0612
  -3.800  -0.1892   0.00589   0.00119  -0.0519   0.6817   0.0649
  -3.700  -0.1779   0.00586   0.00116  -0.0519   0.6757   0.0678
  -3.600  -0.1665   0.00584   0.00113  -0.0519   0.6697   0.0698
  -3.500  -0.1552   0.00583   0.00111  -0.0519   0.6622   0.0734
  -3.400  -0.1438   0.00579   0.00108  -0.0519   0.6569   0.0774
  -3.300  -0.1324   0.00577   0.00105  -0.0520   0.6503   0.0799
  -3.200  -0.1210   0.00577   0.00103  -0.0520   0.6437   0.0818
  -3.100  -0.1097   0.00573   0.00101  -0.0520   0.6380   0.0872
  -3.000  -0.0984   0.00571   0.00099  -0.0520   0.6307   0.0914
  -2.900  -0.0869   0.00570   0.00096  -0.0521   0.6251   0.0937
  -2.800  -0.0756   0.00567   0.00094  -0.0521   0.6189   0.0997
  -2.700  -0.0643   0.00566   0.00092  -0.0521   0.6116   0.1038
  -2.600  -0.0528   0.00564   0.00091  -0.0521   0.6065   0.1064
  -2.500  -0.0415   0.00562   0.00089  -0.0521   0.5995   0.1134
  -2.400  -0.0301   0.00560   0.00087  -0.0522   0.5935   0.1185
  -2.300  -0.0186   0.00559   0.00085  -0.0522   0.5879   0.1218
  -2.200  -0.0074   0.00558   0.00084  -0.0522   0.5806   0.1287
  -2.100   0.0041   0.00555   0.00082  -0.0522   0.5755   0.1337
  -2.000   0.0155   0.00554   0.00081  -0.0523   0.5693   0.1399
  -1.900   0.0267   0.00552   0.00080  -0.0523   0.5624   0.1466
  -1.800   0.0383   0.00551   0.00079  -0.0523   0.5578   0.1499
  -1.700   0.0496   0.00549   0.00077  -0.0523   0.5514   0.1587
  -1.600   0.0609   0.00548   0.00076  -0.0524   0.5452   0.1644
  -1.500   0.0724   0.00546   0.00075  -0.0524   0.5404   0.1720
  -1.400   0.0837   0.00545   0.00075  -0.0524   0.5342   0.1784
  -1.300   0.0952   0.00545   0.00074  -0.0525   0.5284   0.1849
  -1.200   0.1065   0.00542   0.00073  -0.0525   0.5236   0.1936
  -1.100   0.1179   0.00542   0.00073  -0.0525   0.5175   0.1993
  -1.000   0.1293   0.00540   0.00072  -0.0526   0.5122   0.2082
  -0.900   0.1408   0.00539   0.00071  -0.0526   0.5077   0.2145
  -0.800   0.1521   0.00538   0.00071  -0.0526   0.5018   0.2245
  -0.700   0.1635   0.00538   0.00071  -0.0527   0.4963   0.2303
  -0.600   0.1750   0.00535   0.00070  -0.0527   0.4924   0.2405
  -0.500   0.1864   0.00535   0.00070  -0.0527   0.4870   0.2479
  -0.400   0.1977   0.00534   0.00070  -0.0528   0.4808   0.2579
  -0.300   0.2092   0.00533   0.00070  -0.0528   0.4776   0.2653
  -0.200   0.2206   0.00531   0.00070  -0.0528   0.4730   0.2754
  -0.100   0.2319   0.00531   0.00070  -0.0529   0.4671   0.2849
   0.000   0.2434   0.00530   0.00070  -0.0529   0.4630   0.2934
   0.100   0.2548   0.00528   0.00070  -0.0530   0.4593   0.3038
   0.200   0.2662   0.00528   0.00071  -0.0530   0.4543   0.3127
   0.300   0.2775   0.00527   0.00071  -0.0530   0.4484   0.3244
   0.400   0.2890   0.00525   0.00071  -0.0531   0.4456   0.3342
   0.500   0.3004   0.00524   0.00072  -0.0531   0.4415   0.3443
   0.600   0.3117   0.00523   0.00072  -0.0531   0.4362   0.3573
   0.700   0.3231   0.00522   0.00073  -0.0532   0.4314   0.3686
   0.800   0.3346   0.00521   0.00074  -0.0532   0.4282   0.3799
   0.900   0.3459   0.00519   0.00074  -0.0532   0.4236   0.3941
   1.000   0.3571   0.00519   0.00075  -0.0532   0.4178   0.4099
   1.100   0.3684   0.00516   0.00076  -0.0533   0.4142   0.4268
   1.200   0.3798   0.00513   0.00077  -0.0533   0.4100   0.4446
   1.400   0.4022   0.00511   0.00079  -0.0533   0.3988   0.4800
   1.600   0.4246   0.00509   0.00082  -0.0534   0.3879   0.5126
   1.700   0.4359   0.00509   0.00083  -0.0534   0.3821   0.5286
   1.800   0.4471   0.00508   0.00085  -0.0534   0.3764   0.5441
   1.900   0.4582   0.00510   0.00087  -0.0534   0.3684   0.5589
   2.000   0.4694   0.00509   0.00089  -0.0534   0.3635   0.5738
   2.100   0.4805   0.00511   0.00092  -0.0534   0.3558   0.5880
   2.200   0.4917   0.00512   0.00093  -0.0534   0.3496   0.6017
   2.300   0.5028   0.00514   0.00096  -0.0534   0.3421   0.6158
   2.400   0.5139   0.00515   0.00098  -0.0534   0.3348   0.6305
   2.500   0.5250   0.00517   0.00101  -0.0534   0.3278   0.6449
   2.600   0.5360   0.00519   0.00104  -0.0533   0.3196   0.6587
   2.700   0.5471   0.00521   0.00107  -0.0533   0.3129   0.6731
   2.800   0.5580   0.00524   0.00110  -0.0533   0.3040   0.6874
   2.900   0.5691   0.00526   0.00113  -0.0533   0.2974   0.7009
   3.000   0.5800   0.00530   0.00116  -0.0532   0.2884   0.7154
   3.100   0.5910   0.00532   0.00120  -0.0532   0.2812   0.7307
   3.200   0.6019   0.00536   0.00124  -0.0532   0.2726   0.7453
   3.300   0.6128   0.00539   0.00127  -0.0531   0.2649   0.7594
   3.400   0.6236   0.00542   0.00131  -0.0530   0.2565   0.7741
   3.500   0.6344   0.00546   0.00136  -0.0530   0.2483   0.7890
   3.600   0.6453   0.00550   0.00139  -0.0529   0.2403   0.8031
   3.700   0.6559   0.00555   0.00144  -0.0528   0.2314   0.8178
   3.800   0.6667   0.00558   0.00148  -0.0528   0.2240   0.8329
   3.900   0.6772   0.00564   0.00154  -0.0526   0.2140   0.8472
   4.000   0.6880   0.00567   0.00158  -0.0525   0.2078   0.8609
   4.100   0.6983   0.00573   0.00164  -0.0524   0.1975   0.8745
   4.200   0.7090   0.00577   0.00168  -0.0523   0.1910   0.8874
   4.300   0.7193   0.00584   0.00174  -0.0521   0.1819   0.9005
   4.400   0.7297   0.00588   0.00179  -0.0519   0.1758   0.9125
   4.500   0.7399   0.00595   0.00185  -0.0517   0.1668   0.9232
   4.600   0.7500   0.00602   0.00190  -0.0515   0.1595   0.9341
   4.700   0.7600   0.00608   0.00196  -0.0512   0.1519   0.9437
   4.800   0.7702   0.00615   0.00201  -0.0510   0.1458   0.9520
   4.900   0.7799   0.00622   0.00207  -0.0506   0.1381   0.9606
   5.000   0.7900   0.00630   0.00213  -0.0504   0.1315   0.9673
   5.100   0.7999   0.00638   0.00219  -0.0501   0.1241   0.9740
   5.200   0.8104   0.00646   0.00225  -0.0500   0.1190   0.9796
   5.300   0.8217   0.00656   0.00231  -0.0500   0.1115   0.9838
   5.400   0.8334   0.00663   0.00237  -0.0502   0.1070   0.9878
   5.500   0.8444   0.00675   0.00244  -0.0502   0.0989   0.9912
   5.700   0.8707   0.00695   0.00257  -0.0512   0.0880   0.9946
   5.800   0.8842   0.00702   0.00263  -0.0517   0.0847   0.9961
   5.900   0.8973   0.00713   0.00270  -0.0522   0.0798   0.9974
   6.000   0.9105   0.00722   0.00277  -0.0527   0.0747   0.9984
   6.100   0.9236   0.00732   0.00284  -0.0531   0.0711   0.9992
   6.200   0.9363   0.00743   0.00292  -0.0536   0.0656   0.9998
   6.300   0.9479   0.00750   0.00297  -0.0537   0.0637   1.0000
   6.400   0.9576   0.00758   0.00304  -0.0534   0.0612   1.0000
   6.500   0.9671   0.00768   0.00311  -0.0531   0.0578   1.0000
   6.600   0.9770   0.00775   0.00316  -0.0528   0.0553   1.0000
   6.700   0.9870   0.00782   0.00322  -0.0526   0.0536   1.0000
   6.800   0.9969   0.00792   0.00330  -0.0523   0.0508   1.0000
   6.900   1.0068   0.00801   0.00337  -0.0521   0.0476   1.0000
   7.000   1.0172   0.00808   0.00343  -0.0519   0.0465   1.0000
   7.100   1.0274   0.00816   0.00350  -0.0518   0.0448   1.0000
   7.200   1.0375   0.00826   0.00358  -0.0516   0.0427   1.0000
   7.300   1.0478   0.00834   0.00365  -0.0514   0.0405   1.0000
   7.400   1.0583   0.00841   0.00371  -0.0513   0.0397   1.0000
   7.500   1.0687   0.00849   0.00378  -0.0512   0.0385   1.0000
   7.600   1.0789   0.00858   0.00386  -0.0510   0.0369   1.0000
   7.700   1.0891   0.00868   0.00394  -0.0509   0.0348   1.0000
   7.800   1.0996   0.00875   0.00400  -0.0508   0.0340   1.0000
   7.900   1.1100   0.00883   0.00408  -0.0507   0.0330   1.0000
   8.000   1.1203   0.00893   0.00416  -0.0505   0.0319   1.0000
   8.100   1.1305   0.00903   0.00424  -0.0504   0.0305   1.0000
   8.200   1.1409   0.00912   0.00432  -0.0502   0.0291   1.0000
   8.300   1.1514   0.00919   0.00439  -0.0501   0.0287   1.0000
   8.400   1.1618   0.00927   0.00447  -0.0500   0.0281   1.0000
   8.500   1.1721   0.00936   0.00455  -0.0499   0.0273   1.0000
   8.600   1.1823   0.00946   0.00464  -0.0498   0.0264   1.0000
   8.700   1.1924   0.00956   0.00473  -0.0496   0.0253   1.0000
   8.800   1.2027   0.00965   0.00481  -0.0495   0.0245   1.0000
   8.900   1.2131   0.00973   0.00489  -0.0494   0.0241   1.0000
   9.000   1.2234   0.00982   0.00497  -0.0493   0.0236   1.0000
   9.100   1.2336   0.00991   0.00506  -0.0491   0.0230   1.0000
   9.200   1.2437   0.01002   0.00516  -0.0490   0.0222   1.0000
   9.300   1.2537   0.01013   0.00526  -0.0488   0.0213   1.0000
   9.400   1.2638   0.01023   0.00535  -0.0487   0.0205   1.0000
   9.500   1.2741   0.01032   0.00543  -0.0485   0.0203   1.0000
   9.600   1.2843   0.01040   0.00552  -0.0484   0.0201   1.0000
   9.700   1.2944   0.01050   0.00561  -0.0483   0.0197   1.0000
   9.800   1.3045   0.01060   0.00570  -0.0481   0.0193   1.0000
   9.900   1.3144   0.01071   0.00580  -0.0479   0.0188   1.0000
  10.000   1.3242   0.01082   0.00591  -0.0478   0.0182   1.0000
  10.100   1.3340   0.01094   0.00602  -0.0476   0.0176   1.0000
  10.200   1.3439   0.01105   0.00613  -0.0474   0.0171   1.0000
  10.300   1.3540   0.01114   0.00622  -0.0472   0.0169   1.0000
  10.400   1.3640   0.01123   0.00631  -0.0471   0.0168   1.0000
  10.500   1.3739   0.01133   0.00641  -0.0469   0.0166   1.0000
  10.600   1.3837   0.01144   0.00651  -0.0467   0.0163   1.0000
  10.700   1.3934   0.01155   0.00662  -0.0465   0.0160   1.0000
  10.800   1.4030   0.01167   0.00674  -0.0463   0.0156   1.0000
  10.900   1.4125   0.01180   0.00686  -0.0461   0.0151   1.0000
  11.000   1.4219   0.01193   0.00699  -0.0459   0.0146   1.0000
  11.100   1.4313   0.01206   0.00712  -0.0456   0.0141   1.0000
  11.200   1.4410   0.01217   0.00723  -0.0454   0.0140   1.0000
  11.300   1.4507   0.01227   0.00733  -0.0452   0.0139   1.0000
  11.400   1.4603   0.01238   0.00744  -0.0450   0.0138   1.0000
  11.500   1.4698   0.01249   0.00755  -0.0448   0.0136   1.0000
  11.600   1.4792   0.01261   0.00767  -0.0445   0.0135   1.0000
  11.700   1.4885   0.01273   0.00779  -0.0443   0.0133   1.0000
  11.800   1.4977   0.01286   0.00792  -0.0440   0.0131   1.0000
  11.900   1.5068   0.01299   0.00805  -0.0438   0.0128   1.0000
  12.000   1.5158   0.01313   0.00819  -0.0435   0.0126   1.0000
  12.100   1.5246   0.01328   0.00833  -0.0431   0.0123   1.0000
  12.200   1.5334   0.01342   0.00848  -0.0428   0.0119   1.0000
  12.300   1.5421   0.01358   0.00863  -0.0425   0.0116   1.0000
  12.400   1.5508   0.01373   0.00878  -0.0421   0.0114   1.0000
  12.500   1.5598   0.01385   0.00891  -0.0418   0.0113   1.0000
  12.600   1.5687   0.01397   0.00904  -0.0415   0.0113   1.0000
  12.700   1.5776   0.01410   0.00917  -0.0412   0.0112   1.0000
  12.800   1.5863   0.01423   0.00930  -0.0409   0.0111   1.0000
  12.900   1.5949   0.01436   0.00944  -0.0405   0.0111   1.0000
  13.000   1.6035   0.01450   0.00958  -0.0402   0.0110   1.0000
  13.100   1.6118   0.01464   0.00973  -0.0398   0.0108   1.0000
  13.200   1.6201   0.01479   0.00988  -0.0394   0.0107   1.0000
  13.300   1.6282   0.01495   0.01004  -0.0390   0.0106   1.0000
  13.400   1.6360   0.01511   0.01020  -0.0385   0.0104   1.0000
  13.500   1.6436   0.01528   0.01037  -0.0380   0.0103   1.0000
  13.600   1.6509   0.01545   0.01055  -0.0375   0.0101   1.0000
  13.700   1.6575   0.01563   0.01072  -0.0368   0.0099   1.0000
  13.800   1.6637   0.01581   0.01091  -0.0360   0.0097   1.0000
  13.900   1.6696   0.01600   0.01111  -0.0352   0.0095   1.0000
  14.000   1.6753   0.01620   0.01131  -0.0344   0.0093   1.0000
  14.100   1.6811   0.01640   0.01153  -0.0336   0.0091   1.0000
  14.200   1.6876   0.01657   0.01170  -0.0329   0.0090   1.0000
  14.300   1.6940   0.01674   0.01188  -0.0322   0.0090   1.0000
  14.400   1.7004   0.01692   0.01207  -0.0316   0.0090   1.0000
  14.500   1.7068   0.01711   0.01226  -0.0309   0.0090   1.0000
  14.600   1.7130   0.01730   0.01246  -0.0302   0.0089   1.0000
  14.700   1.7191   0.01750   0.01267  -0.0296   0.0089   1.0000
  14.800   1.7253   0.01770   0.01288  -0.0289   0.0088   1.0000
  14.900   1.7312   0.01791   0.01310  -0.0283   0.0088   1.0000
  15.000   1.7370   0.01813   0.01333  -0.0276   0.0087   1.0000
  15.100   1.7429   0.01836   0.01357  -0.0269   0.0087   1.0000
  15.200   1.7486   0.01860   0.01382  -0.0263   0.0086   1.0000
  15.300   1.7539   0.01885   0.01408  -0.0256   0.0085   1.0000
  15.400   1.7593   0.01911   0.01435  -0.0249   0.0085   1.0000
  15.500   1.7647   0.01938   0.01463  -0.0243   0.0084   1.0000
  15.600   1.7697   0.01967   0.01493  -0.0236   0.0083   1.0000
  15.700   1.7747   0.01997   0.01523  -0.0229   0.0082   1.0000
  15.800   1.7796   0.02027   0.01555  -0.0222   0.0081   1.0000
  15.900   1.7841   0.02060   0.01589  -0.0215   0.0081   1.0000
  16.000   1.7886   0.02094   0.01624  -0.0209   0.0080   1.0000
  16.100   1.7931   0.02129   0.01660  -0.0202   0.0079   1.0000
  16.200   1.7972   0.02167   0.01698  -0.0195   0.0078   1.0000
  16.300   1.8013   0.02205   0.01738  -0.0189   0.0076   1.0000
  16.400   1.8052   0.02245   0.01780  -0.0182   0.0075   1.0000
  16.500   1.8087   0.02288   0.01824  -0.0176   0.0074   1.0000
  16.600   1.8124   0.02332   0.01869  -0.0169   0.0073   1.0000
  16.700   1.8157   0.02379   0.01917  -0.0163   0.0072   1.0000
  16.800   1.8190   0.02426   0.01967  -0.0157   0.0071   1.0000
  16.900   1.8224   0.02475   0.02017  -0.0151   0.0070   1.0000
  17.000   1.8264   0.02519   0.02062  -0.0146   0.0070   1.0000
  17.100   1.8304   0.02562   0.02108  -0.0141   0.0070   1.0000
  17.200   1.8340   0.02610   0.02157  -0.0136   0.0070   1.0000
  17.300   1.8378   0.02658   0.02206  -0.0131   0.0070   1.0000
  17.400   1.8414   0.02708   0.02258  -0.0127   0.0070   1.0000
  17.500   1.8448   0.02760   0.02312  -0.0122   0.0070   1.0000
  17.600   1.8483   0.02813   0.02366  -0.0118   0.0069   1.0000
  17.700   1.8514   0.02870   0.02425  -0.0114   0.0069   1.0000
  17.800   1.8546   0.02926   0.02483  -0.0110   0.0069   1.0000
  17.900   1.8572   0.02988   0.02546  -0.0106   0.0069   1.0000
  18.000   1.8600   0.03049   0.02609  -0.0102   0.0069   1.0000
  18.100   1.8624   0.03114   0.02676  -0.0099   0.0068   1.0000
  18.200   1.8648   0.03181   0.02744  -0.0095   0.0068   1.0000
  18.300   1.8671   0.03249   0.02815  -0.0092   0.0068   1.0000
  18.400   1.8691   0.03322   0.02889  -0.0089   0.0068   1.0000
  18.500   1.8711   0.03395   0.02965  -0.0086   0.0067   1.0000
  18.600   1.8727   0.03474   0.03045  -0.0084   0.0067   1.0000
  18.700   1.8743   0.03553   0.03126  -0.0081   0.0067   1.0000
  18.800   1.8753   0.03638   0.03213  -0.0079   0.0066   1.0000
  18.900   1.8764   0.03722   0.03300  -0.0077   0.0066   1.0000
  19.000   1.8771   0.03814   0.03394  -0.0075   0.0066   1.0000
  19.100   1.8779   0.03906   0.03487  -0.0074   0.0065   1.0000
  19.200   1.8783   0.04004   0.03588  -0.0072   0.0065   1.0000
  19.300   1.8786   0.04103   0.03689  -0.0071   0.0065   1.0000
  19.400   1.8786   0.04208   0.03796  -0.0071   0.0064   1.0000
  19.500   1.8784   0.04316   0.03907  -0.0070   0.0064   1.0000
  19.600   1.8781   0.04426   0.04019  -0.0070   0.0063   1.0000
  19.700   1.8771   0.04545   0.04141  -0.0070   0.0063   1.0000
  19.800   1.8764   0.04661   0.04259  -0.0070   0.0063   1.0000
  19.900   1.8747   0.04791   0.04391  -0.0071   0.0062   1.0000
  20.000   1.8736   0.04916   0.04518  -0.0072   0.0062   1.0000
  20.100   1.8715   0.05054   0.04660  -0.0074   0.0061   1.0000
  20.200   1.8696   0.05191   0.04799  -0.0075   0.0061   1.0000
  20.300   1.8674   0.05334   0.04945  -0.0077   0.0061   1.0000
  20.400   1.8646   0.05486   0.05099  -0.0080   0.0060   1.0000
  20.500   1.8621   0.05632   0.05248  -0.0082   0.0060   1.0000
  20.600   1.8583   0.05797   0.05416  -0.0085   0.0059   1.0000
  20.700   1.8552   0.05953   0.05575  -0.0088   0.0059   1.0000
  20.800   1.8511   0.06126   0.05751  -0.0092   0.0059   1.0000
  20.900   1.8471   0.06300   0.05928  -0.0096   0.0058   1.0000
  21.000   1.8431   0.06474   0.06105  -0.0100   0.0058   1.0000
  21.100   1.8380   0.06665   0.06300  -0.0105   0.0057   1.0000
  21.200   1.8338   0.06843   0.06481  -0.0109   0.0057   1.0000
  21.300   1.8278   0.07048   0.06689  -0.0115   0.0057   1.0000
  21.400   1.8225   0.07241   0.06886  -0.0120   0.0056   1.0000
  21.500   1.8164   0.07448   0.07097  -0.0127   0.0056   1.0000
  21.600   1.8099   0.07664   0.07316  -0.0133   0.0056   1.0000
  21.700   1.8042   0.07869   0.07524  -0.0140   0.0056   1.0000
  21.800   1.7967   0.08104   0.07763  -0.0147   0.0055   1.0000
  21.900   1.7909   0.08312   0.07974  -0.0154   0.0055   1.0000
  22.000   1.7825   0.08561   0.08228  -0.0163   0.0055   1.0000
  22.100   1.7757   0.08783   0.08454  -0.0171   0.0054   1.0000
  22.200   1.7672   0.09036   0.08710  -0.0180   0.0054   1.0000
  22.300   1.7591   0.09283   0.08961  -0.0189   0.0054   1.0000
  22.400   1.7511   0.09530   0.09213  -0.0199   0.0054   1.0000
  22.500   1.7419   0.09801   0.09488  -0.0209   0.0054   1.0000
  22.600   1.7343   0.10045   0.09735  -0.0219   0.0053   1.0000
  22.700   1.7242   0.10334   0.10029  -0.0231   0.0053   1.0000
  22.800   1.7167   0.10576   0.10275  -0.0241   0.0053   1.0000
  22.900   1.7057   0.10879   0.10583  -0.0255   0.0053   1.0000
  23.000   1.6986   0.11121   0.10828  -0.0265   0.0053   1.0000
  23.100   1.6882   0.11420   0.11131  -0.0279   0.0053   1.0000
  23.200   1.6814   0.11662   0.11377  -0.0290   0.0053   1.0000
  23.300   1.6710   0.11966   0.11686  -0.0305   0.0053   1.0000
  23.400   1.6638   0.12218   0.11941  -0.0317   0.0053   1.0000
  23.500   1.6535   0.12525   0.12252  -0.0333   0.0053   1.0000
  23.600   1.6456   0.12789   0.12520  -0.0347   0.0053   1.0000
  23.700   1.6352   0.13098   0.12833  -0.0363   0.0053   1.0000
  23.800   1.6270   0.13373   0.13112  -0.0378   0.0053   1.0000
  23.900   1.6168   0.13687   0.13430  -0.0395   0.0053   1.0000
  24.000   1.6087   0.13965   0.13712  -0.0411   0.0053   1.0000
  24.100   1.5984   0.14287   0.14038  -0.0430   0.0053   1.0000
  24.200   1.5907   0.14564   0.14319  -0.0447   0.0053   1.0000
  24.300   1.5799   0.14901   0.14661  -0.0467   0.0053   1.0000
  24.400   1.5730   0.15168   0.14931  -0.0484   0.0053   1.0000
  24.500   1.5609   0.15532   0.15300  -0.0507   0.0053   1.0000
  24.600   1.5547   0.15787   0.15558  -0.0524   0.0053   1.0000
  24.700   1.5414   0.16182   0.15959  -0.0550   0.0053   1.0000
  24.800   1.5358   0.16433   0.16213  -0.0567   0.0053   1.0000
  24.900   1.5220   0.16849   0.16634  -0.0595   0.0053   1.0000
  25.000   1.5164   0.17105   0.16893  -0.0613   0.0053   1.0000
